/*--------------------------------*- C++ -*----------------------------------*\
| =========                 |                                                 |
| \\      /  F ield         | OpenFOAM: The Open Source CFD Toolbox           |
|  \\    /   O peration     | Version:  2.1.0                                 |
|   \\  /    A nd           | Web:      www.OpenFOAM.org                      |
|    \\/     M anipulation  |                                                 |
\*---------------------------------------------------------------------------*/
FoamFile
{
    version     2.0;
    format      ascii;
    class       dictionary;
    object      blockMeshDict;
}
// * * * * * * * * * * * * * * * * * * * * * * * * * * * * * * * * * * * * * //

convertToMeters 1.0;

vertices
(
    #include "vertexFileSemiSlumpFlow.H"
);

blocks
(
    // #include "hexBlocksSemiSlumpFlowHighRes.H"
    #include "hexBlocksSemiSlumpFlowMedRes.H"
    // #include "hexBlocksSemiSlumpFlowLowRes.H"
);

edges
(
    #include "arcFileSemiSlumpFlow.H"
);

boundary
(
    outerBoundaryWall
    {
        type wall;
        faces
        (
         // South:
            (  0   1 101 100)
            (  1   2 102 101)
            (  2   3 103 102)
            (  3   4 104 103)
            (  4   5 105 104)
            (  5   6 106 105)
            (  6   7 107 106)
            (  7   8 108 107)
            (  8   9 109 108)
         // East:
            (  9  19 119 109)
            ( 19  29 129 119)
            ( 29  39 139 129)
            ( 39  49 149 139)
            ( 49  59 159 149)
            ( 59  69 169 159)
            ( 69  79 179 169)
            ( 79  89 189 179)
            ( 89  99 199 189)
         // North:
            ( 99  98 198 199)
            ( 98  97 197 198)
            ( 97  96 196 197)
            ( 96  95 195 196)
            ( 95  94 194 195)
            ( 94  93 193 194)
            ( 93  92 192 193)
            ( 92  91 191 192)
            ( 91  90 190 191)
         // West:
            ( 80 180 190  90)
            ( 70 170 180  80)
            ( 60 160 170  70)
            ( 50 150 160  60)
            ( 40 140 150  50)
            ( 30 130 140  40)
            ( 20 120 130  30)
            ( 10 110 120  20)
            (  0 100 110  10)
        );
    }

    bottomBoundaryFloor
    {
        type wall;
        faces
        (
         // -----------------
         // blocks 0 to 8:
            (  0  10  11   1)
            (  1  11  12   2)
            (  2  12  13   3)
            (  3  13  14   4)
            (  4  14  15   5)
            (  5  15  16   6)
            (  6  16  17   7)
            (  7  17  18   8)
            (  8  18  19   9)
         // (  9  19  20  10)
         // -----------------
         // blocks 9 to 13 **:
            ( 10  20  21  11)
         // ( 11  21  22  12)
            ( 12  22  23  13)
         // ( 13  23  24  14)
            ( 14  24  25  15)
         // ( 15  25  26  16)
            ( 16  26  27  17)
         // ( 17  27  28  18)
            ( 18  28  29  19)
         // ( 19  29  30  20)
         // -----------------
         // blocks 14 to 22:
            ( 20  30  31  21)
            ( 21  31  32  22)
            ( 22  32  33  23)
            ( 23  33  34  24)
            ( 24  34  35  25)
            ( 25  35  36  26)
            ( 26  36  37  27)
            ( 27  37  38  28)
            ( 28  38  39  29)
         // ( 29  39  40  30)
         // -----------------
         // blocks 23 to 27 **:
            ( 30  40  41  31)
         // ( 31  41  42  32)
            ( 32  42  43  33)
         // ( 33  43  44  34)
            ( 34  44  45  35)
         // ( 35  45  46  36)
            ( 36  46  47  37)
         // ( 37  47  48  38)
            ( 38  48  49  39)
         // ( 39  49  50  40)
         // -----------------
         // blocks 28 to 36:
            ( 40  50  51  41)
            ( 41  51  52  42)
            ( 42  52  53  43)
            ( 43  53  54  44)
            ( 44  54  55  45)
            ( 45  55  56  46)
            ( 46  56  57  47)
            ( 47  57  58  48)
            ( 48  58  59  49)
         // ( 49  59  60  50)
         // -----------------
         // blocks 37 to 41 **:
            ( 50  60  61  51)
         // ( 51  61  62  52)
            ( 52  62  63  53)
         // ( 53  63  64  54)
            ( 54  64  65  55)
         // ( 55  65  66  56)
            ( 56  66  67  57)
         // ( 57  67  68  58)
            ( 58  68  69  59)
         // ( 59  69  70  60)
         // -----------------
         // blocks 42 to 50:
            ( 60  70  71  61)
            ( 61  71  72  62)
            ( 62  72  73  63)
            ( 63  73  74  64)
            ( 64  74  75  65)
            ( 65  75  76  66)
            ( 66  76  77  67)
            ( 67  77  78  68)
            ( 68  78  79  69)
         // ( 69  79  80  70)
         // -----------------
         // blocks 51 to 55 **:
            ( 70  80  81  71)
         // ( 71  81  82  72)
            ( 72  82  83  73)
         // ( 73  83  84  74)
            ( 74  84  85  75)
         // ( 75  85  86  76)
            ( 76  86  87  77)
         // ( 77  87  88  78)
            ( 78  88  89  79)
         // ( 79  89  90  80)
         // -----------------
         // blocks 56 to 64:
            ( 80  90  91  81)
            ( 81  91  92  82)
            ( 82  92  93  83)
            ( 83  93  94  84)
            ( 84  94  95  85)
            ( 85  95  96  86)
            ( 86  96  97  87)
            ( 87  97  98  88)
            ( 88  98  99  89)
         // ( 89  99 100  90)
         // -----------------
        );
    }

    rodPillarSystem
    {
        type wall;
        faces
        (
         // ----------------------------------
         // Pillar A:
            ( 12  11 111 112)
            ( 22  12 112 122)
            ( 21  22 122 121)
            ( 11  21 121 111)
         // -----------------
         // Pillar B:
            ( 14  13 113 114)
            ( 24  14 114 124)
            ( 23  24 124 123)
            ( 13  23 123 113)
         // -----------------
         // Pillar C:
            ( 16  15 115 116)
            ( 26  16 116 126)
            ( 25  26 126 125)
            ( 15  25 125 115)
         // -----------------
         // Pillar D:
            ( 18  17 117 118)
            ( 28  18 118 128)
            ( 27  28 128 127)
            ( 17  27 127 117)
         // ----------------------------------
         // Pillar E:
            ( 32  31 131 132)
            ( 42  32 132 142)
            ( 41  42 142 141)
            ( 31  41 141 131)
         // -----------------
         // Pillar F:
            ( 34  33 133 134)
            ( 44  34 134 144)
            ( 43  44 144 143)
            ( 33  43 143 133)
         // -----------------
         // Pillar G:
            ( 36  35 135 136)
            ( 46  36 136 146)
            ( 45  46 146 145)
            ( 35  45 145 135)
         // -----------------
         // Pillar H:
            ( 38  37 137 138)
            ( 48  38 138 148)
            ( 47  48 148 147)
            ( 37  47 147 137)
         // ----------------------------------
         // Pillar I:
            ( 52  51 151 152)
            ( 62  52 152 162)
            ( 61  62 162 161)
            ( 51  61 161 151)
         // -----------------
         // Pillar J:
            ( 54  53 153 154)
            ( 64  54 154 164)
            ( 63  64 164 163)
            ( 53  63 163 153)
         // -----------------
         // Pillar K:
            ( 56  55 155 156)
            ( 66  56 156 166)
            ( 65  66 166 165)
            ( 55  65 165 155)
         // -----------------
         // Pillar L:
            ( 58  57 157 158)
            ( 68  58 158 168)
            ( 67  68 168 167)
            ( 57  67 167 157)
         // ----------------------------------
         // Pillar M:
            ( 72  71 171 172)
            ( 82  72 172 182)
            ( 81  82 182 181)
            ( 71  81 181 171)
         // -----------------
         // Pillar N:
            ( 74  73 173 174)
            ( 84  74 174 184)
            ( 83  84 184 183)
            ( 73  83 183 173)
         // -----------------
         // Pillar O:
            ( 76  75 175 176)
            ( 86  76 176 186)
            ( 85  86 186 185)
            ( 75  85 185 175)
         // -----------------
         // Pillar P:
            ( 78  77 177 178)
            ( 88  78 178 188)
            ( 87  88 188 187)
            ( 77  87 187 177)
         // ----------------------------------
        );
    }

    atmosphere
    {
        type patch;
        faces
        (
         // -----------------
         // blocks 0 to 8:
            (100 101 111 110)
            (101 102 112 111)
            (102 103 113 112)
            (103 104 114 113)
            (104 105 115 114)
            (105 106 116 115)
            (106 107 117 116)
            (107 108 118 117)
            (108 109 119 118)
         // (109 110 120 119)
         // -----------------
         // blocks 9 to 13 **:
            (110 111 121 120)
         // (111 112 122 121)
            (112 113 123 122)
         // (113 114 124 123)
            (114 115 125 124)
         // (115 116 126 125)
            (116 117 127 126)
         // (117 118 128 127)
            (118 119 129 128)
         // (119 120 130 129)
         // -----------------
         // blocks 14 to 22:
            (120 121 131 130)
            (121 122 132 131)
            (122 123 133 132)
            (123 124 134 133)
            (124 125 135 134)
            (125 126 136 135)
            (126 127 137 136)
            (127 128 138 137)
            (128 129 139 138)
         // (129 130 140 139)
         // -----------------
         // blocks 23 to 27 **:
            (130 131 141 140)
         // (131 132 142 141)
            (132 133 143 142)
         // (133 134 144 143)
            (134 135 145 144)
         // (135 136 146 145)
            (136 137 147 146)
         // (137 138 148 147)
            (138 139 149 148)
         // (139 140 150 149)
         // -----------------
         // blocks 28 to 36:
            (140 141 151 150)
            (141 142 152 151)
            (142 143 153 152)
            (143 144 154 153)
            (144 145 155 154)
            (145 146 156 155)
            (146 147 157 156)
            (147 148 158 157)
            (148 149 159 158)
         // (149 150 160 159)
         // -----------------
         // blocks 37 to 41 **:
            (150 151 161 160)
         // (151 152 162 161)
            (152 153 163 162)
         // (153 154 164 163)
            (154 155 165 164)
         // (155 156 166 165)
            (156 157 167 166)
         // (157 158 168 167)
            (158 159 169 168)
         // (159 160 170 169)
         // -----------------
         // blocks 42 to 50:
            (160 161 171 170)
            (161 162 172 171)
            (162 163 173 172)
            (163 164 174 173)
            (164 165 175 174)
            (165 166 176 175)
            (166 167 177 176)
            (167 168 178 177)
            (168 169 179 178)
         // (169 170 180 179)
         // -----------------
         // blocks 51 to 55 **:
            (170 171 181 180)
         // (171 172 182 181)
            (172 173 183 182)
         // (173 174 184 183)
            (174 175 185 184)
         // (175 176 186 185)
            (176 177 187 186)
         // (177 178 188 187)
            (178 179 189 188)
         // (179 180 190 189)
         // -----------------
         // blocks 56 to 64:
            (180 181 191 190)
            (181 182 192 191)
            (182 183 193 192)
            (183 184 194 193)
            (184 185 195 194)
            (185 186 196 195)
            (186 187 197 196)
            (187 188 198 197)
            (188 189 199 198)
         // (189 190 200 199)
         // -----------------
        );
    }
);

mergePatchPairs
(
);

// ************************************************************************* //
