/*--------------------------------*- C++ -*----------------------------------*\
| =========                 |                                                 |
| \\      /  F ield         | OpenFOAM: The Open Source CFD Toolbox           |
|  \\    /   O peration     | Version:  2.2.0                                 |
|   \\  /    A nd           | Web:      www.OpenFOAM.com                      |
|    \\/     M anipulation  |                                                 |
\*---------------------------------------------------------------------------*/
FoamFile
{
    version     2.0;
    format      ascii;
    class       dictionary;
    location    "system";
    object      fvSchemes;
}
// * * * * * * * * * * * * * * * * * * * * * * * * * * * * * * * * * * * * * //

ddtSchemes
{
    default            Euler;
}

gradSchemes
{
    default            Gauss linear;
    grad(shearRateUse) cellLimited Gauss linear 1;
}

divSchemes
{
    div(rhoPhi,U)      Gauss limitedLinearV 1;
    div(rhoPhiVdj,Vdj) Gauss linear;
    div(phi,alpha1)    Gauss vanLeer;
    div(phirb,alpha1)  Gauss interfaceCompression;
    div(phi,alphaD)    Gauss vanLeer;
    div(phirb,alphaD)  Gauss vanLeer;
    div(phiVdj,alphaD) Gauss vanLeer;
    div((etaEff*dev(T(grad(U))))) Gauss linear;
}

laplacianSchemes
{
    default            Gauss linear corrected;
}

interpolationSchemes
{
    default            linear;
}

snGradSchemes
{
    default            corrected;
}

fluxRequired
{
    default            no;
    p_rgh;
    pcorr;
    alpha1;
    alphaD;
}


// ************************************************************************* //
