/*--------------------------------*- C++ -*----------------------------------*\
| =========                 |                                                 |
| \\      /  F ield         | OpenFOAM: The Open Source CFD Toolbox           |
|  \\    /   O peration     | Version:  2.2.0                                 |
|   \\  /    A nd           | Web:      www.OpenFOAM.com                      |
|    \\/     M anipulation  |                                                 |
\*---------------------------------------------------------------------------*/
FoamFile
{
    version     2.0;
    format      ascii;
    class       dictionary;
    location    "system";
    object      fvSolution;
}
// * * * * * * * * * * * * * * * * * * * * * * * * * * * * * * * * * * * * * //

solvers
{
    pcorr
    {
        solver          PCG;
        preconditioner  DIC;
        tolerance       1e-11;
        relTol          0;
    }

    p_rgh
    {
        solver          PCG;
        preconditioner  DIC;
        tolerance       1e-08;
        relTol          0.005;
    }

    p_rghFinal
    {
        $p_rgh;
        tolerance       1e-08;
        relTol          0;
    }

    U
    {
        solver          PBiCG;
        preconditioner  DILU;
        tolerance       1e-09;
        relTol          0;
    }

    UFinal
    {
        $U;
        tolerance       1e-12;
        relTol          0;
    }

    alpha1
    {
        maxUnboundedness 1e-5;
        CoCoeff          2;
        maxIter          5;
        nLimiterIter     2;
        solver           PBiCG;
        preconditioner   DILU;
        tolerance        1e-12;
        relTol           0.05;
    }

    alphaD
    {
        maxUnboundedness 1e-5;
        CoCoeff          2;
        maxIter          5;
        nLimiterIter     2;
        solver           PBiCG;
        preconditioner   DILU;
        tolerance        1e-12;
        relTol           0.05;
    }

    // For densityContErrs.H:
    rho
    {
        solver          PCG;
        preconditioner  DIC;
        tolerance       1e-8;
        relTol          0.1;
    }

    rhoFinal
    {
        $rho;
        tolerance       1e-8;
        relTol          0;
    }
}

PIMPLE
{
    momentumPredictor no;
    nCorrectors       3;
    nNonOrthogonalCorrectors 0;
    cAlpha            1;
    nAlpha1Corr       1;
    nAlpha1SubCycles  2;
    nAlphaDCorr       1;
    nAlphaDSubCycles  2;
}


// ************************************************************************* //
